Version 4
SHEET 1 1812 688
WIRE 240 -256 240 -272
WIRE 304 -256 240 -256
WIRE 240 -240 240 -256
WIRE -32 -208 -32 -240
WIRE 304 -192 304 -256
WIRE 304 -192 240 -192
WIRE 192 -160 160 -160
WIRE 800 -160 800 -208
WIRE 800 -160 752 -160
WIRE 1152 -160 1152 -208
WIRE 1200 -160 1152 -160
WIRE 800 -144 800 -160
WIRE 1152 -144 1152 -160
WIRE -32 -96 -32 -128
WIRE 48 -96 -32 -96
WIRE 160 -96 160 -160
WIRE 176 -96 160 -96
WIRE 240 -96 240 -144
WIRE 240 -96 176 -96
WIRE 496 -96 496 -112
WIRE 560 -96 496 -96
WIRE 752 -96 752 -160
WIRE 800 -96 752 -96
WIRE 1200 -96 1200 -160
WIRE 1200 -96 1152 -96
WIRE -32 -64 -32 -96
WIRE 240 -64 240 -96
WIRE 496 -64 496 -96
WIRE 880 -64 848 -64
WIRE 1104 -64 880 -64
WIRE -32 -16 -96 -16
WIRE 304 -16 240 -16
WIRE 560 -16 560 -96
WIRE 560 -16 496 -16
WIRE 800 -16 800 -48
WIRE 880 -16 880 -64
WIRE 880 -16 800 -16
WIRE 1152 -16 1152 -48
WIRE 48 16 48 -96
WIRE 48 16 16 16
WIRE 192 16 48 16
WIRE 448 16 416 16
WIRE 832 32 800 32
WIRE 1200 32 1200 -96
WIRE 1200 32 1152 32
WIRE -96 64 -96 -16
WIRE -32 64 -32 32
WIRE -32 64 -96 64
WIRE 240 64 240 32
WIRE 304 64 304 -16
WIRE 304 64 240 64
WIRE 416 64 416 16
WIRE 496 64 496 32
WIRE 496 64 416 64
WIRE 752 64 688 64
WIRE 1104 64 1040 64
WIRE -32 96 -32 64
WIRE 240 96 240 64
WIRE 496 128 496 64
WIRE 528 128 496 128
WIRE 1152 160 1152 80
WIRE 1248 160 1152 160
WIRE 800 176 800 80
WIRE 800 176 496 176
WIRE 528 208 528 128
WIRE 800 208 528 208
WIRE 800 240 800 208
WIRE 1152 240 1152 160
WIRE 880 288 800 288
WIRE 1200 288 1152 288
WIRE 752 320 688 320
WIRE 1104 320 1040 320
WIRE 496 336 496 176
WIRE 128 368 128 352
WIRE 800 368 800 336
WIRE 880 368 800 368
WIRE 560 384 496 384
WIRE 800 384 800 368
WIRE 1152 384 1152 336
WIRE 48 416 32 416
WIRE 224 416 208 416
WIRE 448 416 416 416
WIRE 800 432 752 432
WIRE 1200 432 1200 288
WIRE 1200 432 1152 432
WIRE 48 448 32 448
WIRE 224 448 208 448
WIRE 496 464 496 432
WIRE 560 464 560 384
WIRE 560 464 496 464
WIRE 880 464 880 368
WIRE 880 464 848 464
WIRE 1104 464 880 464
WIRE 496 496 496 464
WIRE 128 512 128 496
WIRE 752 512 752 432
WIRE 800 512 800 480
WIRE 800 512 752 512
WIRE 1152 512 1152 480
WIRE 1200 512 1200 432
WIRE 1200 512 1152 512
WIRE 800 560 800 512
WIRE 1152 560 1152 512
FLAG -32 -240 VDD
IOPIN -32 -240 BiDir
FLAG -32 96 GND
IOPIN -32 96 BiDir
FLAG 496 496 GND
IOPIN 496 496 BiDir
FLAG 48 -96 Vbn
FLAG 416 16 Vbp
FLAG 496 -112 VDD
IOPIN 496 -112 BiDir
FLAG 416 416 Vbn
FLAG 224 448 down
FLAG 128 352 VDD
IOPIN 128 352 BiDir
FLAG 128 512 GND
IOPIN 128 512 BiDir
FLAG 224 416 _up
FLAG 32 448 CLKB
IOPIN 32 448 In
FLAG 32 416 CLKA
IOPIN 32 416 In
FLAG 176 -96 Vbp
FLAG 240 96 GND
IOPIN 240 96 BiDir
FLAG 240 -272 VDD
IOPIN 240 -272 BiDir
FLAG 1040 64 _up
FLAG 1040 320 down
FLAG 688 320 VDD
IOPIN 688 320 BiDir
FLAG 800 -208 VDD
IOPIN 800 -208 BiDir
FLAG 1152 -208 VDD
IOPIN 1152 -208 BiDir
FLAG 832 32 VDD
IOPIN 832 32 BiDir
FLAG 800 560 GND
IOPIN 800 560 BiDir
FLAG 1152 560 GND
IOPIN 1152 560 BiDir
FLAG 688 64 GND
IOPIN 688 64 BiDir
FLAG 1248 160 OUT
IOPIN 1248 160 Out
FLAG 880 288 GND
IOPIN 880 288 BiDir
SYMBOL pmos4 448 -64 R0
SYMATTR InstName M1
SYMATTR Value2 l=1.2u w=7.8u
SYMATTR Value PFET
SYMBOL nmos4 16 -64 M0
SYMATTR InstName M2
SYMATTR Value2 l=1.2u w=2.4u
SYMATTR Value NFET
SYMBOL res -48 -224 R0
SYMATTR InstName R1
SYMATTR Value 385k
SYMBOL nmos4 448 336 R0
SYMATTR InstName M3
SYMATTR Value2 l=1.2u w=2.4u
SYMATTR Value NFET
SYMBOL phaseDetector 128 432 R0
SYMATTR InstName X1
SYMBOL pmos4 192 -240 R0
SYMATTR InstName M12
SYMATTR Value pfet
SYMATTR Value2 l=1.2u w=7.8u
SYMBOL nmos4 192 -64 R0
SYMATTR InstName M13
SYMATTR Value nfet
SYMATTR Value2 l=1.2u w=2.4u
SYMBOL pmos4 848 -144 M0
SYMATTR InstName M4
SYMATTR Value PFET
SYMATTR Value2 l=1.2u w=7.8u
SYMBOL nmos4 848 384 M0
SYMATTR InstName M5
SYMATTR Value NFET
SYMATTR Value2 l=1.2u w=2.4u
SYMBOL nmos4 752 240 R0
SYMATTR InstName M6
SYMATTR Value NFET
SYMATTR Value2 l=0.6u w=1.5u
SYMBOL pmos4 752 -16 R0
SYMATTR InstName M7
SYMATTR Value PFET
SYMATTR Value2 l=0.6u w=3u
SYMBOL pmos4 1104 -144 R0
SYMATTR InstName M8
SYMATTR Value PFET
SYMATTR Value2 l=1.2u w=7.8u
SYMBOL pmos4 1104 -16 R0
SYMATTR InstName M9
SYMATTR Value PFET
SYMATTR Value2 l=0.6u w=3u
SYMBOL nmos4 1104 384 R0
SYMATTR InstName M10
SYMATTR Value NFET
SYMATTR Value2 l=1.2u w=2.4u
SYMBOL nmos4 1104 240 R0
SYMATTR InstName M11
SYMATTR Value NFET
SYMATTR Value2 l=0.6u w=1.5u
TEXT -248 600 Left 2 !.include "ami05.txt"
