Version 4
SHEET 1 2576 1504
WIRE 192 -16 0 -16
WIRE 448 -16 256 -16
WIRE 704 -16 512 -16
WIRE 960 -16 768 -16
WIRE 128 96 128 80
WIRE 384 96 384 80
WIRE 640 96 640 80
WIRE 896 96 896 80
WIRE 0 112 0 -16
WIRE 32 112 0 112
WIRE 256 112 256 -16
WIRE 288 112 256 112
WIRE 512 112 512 -16
WIRE 544 112 512 112
WIRE 768 112 768 -16
WIRE 800 112 768 112
WIRE 1248 112 1232 112
WIRE 1472 112 1456 112
WIRE 1680 112 1664 112
WIRE 1904 112 1888 112
WIRE 32 144 -48 144
WIRE 192 144 192 -16
WIRE 192 144 176 144
WIRE 288 144 192 144
WIRE 448 144 448 -16
WIRE 448 144 432 144
WIRE 544 144 448 144
WIRE 704 144 704 -16
WIRE 704 144 688 144
WIRE 800 144 704 144
WIRE 960 144 960 -16
WIRE 960 144 944 144
WIRE 1184 144 1168 144
WIRE 1408 144 1392 144
WIRE 1616 144 1600 144
WIRE 1840 144 1824 144
WIRE 1888 160 1888 144
WIRE 192 176 176 176
WIRE 448 176 432 176
WIRE 704 176 688 176
WIRE 976 176 944 176
WIRE 1008 176 976 176
WIRE 32 208 16 208
WIRE 288 208 272 208
WIRE 544 208 528 208
WIRE 800 208 784 208
WIRE 1232 208 1232 160
WIRE 1456 208 1456 160
WIRE 1456 208 1232 208
WIRE 1568 208 1456 208
WIRE 1664 208 1664 160
WIRE 1664 208 1568 208
WIRE 1888 208 1888 160
WIRE 1888 208 1664 208
WIRE 2064 208 1888 208
WIRE 128 240 128 224
WIRE 384 240 384 224
WIRE 640 240 640 224
WIRE 896 240 896 224
WIRE 1568 256 1568 208
WIRE 1584 304 1568 304
WIRE 16 336 16 208
WIRE 272 336 272 208
WIRE 272 336 16 336
WIRE 528 336 528 208
WIRE 528 336 272 336
WIRE 784 336 784 208
WIRE 784 336 528 336
WIRE 1520 336 1504 336
WIRE 1568 384 1568 352
WIRE 1584 432 1568 432
WIRE 1520 464 1504 464
WIRE 1568 512 1568 480
WIRE 1584 560 1568 560
WIRE 1520 592 1504 592
WIRE 1568 640 1568 608
WIRE 1584 688 1568 688
WIRE 1520 720 1504 720
WIRE 1568 752 1568 736
FLAG 128 80 VDD
IOPIN 128 80 BiDir
FLAG 128 240 GND
IOPIN 128 240 BiDir
FLAG -48 144 CLK
IOPIN -48 144 In
FLAG 384 80 VDD
IOPIN 384 80 BiDir
FLAG 384 240 GND
IOPIN 384 240 BiDir
FLAG 640 80 VDD
IOPIN 640 80 BiDir
FLAG 640 240 GND
IOPIN 640 240 BiDir
FLAG 896 80 VDD
IOPIN 896 80 BiDir
FLAG 896 240 GND
IOPIN 896 240 BiDir
FLAG 1008 176 OUT
IOPIN 1008 176 Out
FLAG 528 336 CLR
FLAG 976 176 D0
FLAG 704 176 D1
FLAG 448 176 D2
FLAG 192 176 D3
FLAG 1248 112 VDD
IOPIN 1248 112 BiDir
FLAG 1584 304 GND
IOPIN 1584 304 BiDir
FLAG 1232 64 VDD
IOPIN 1232 64 BiDir
FLAG 1584 432 GND
IOPIN 1584 432 BiDir
FLAG 1584 560 GND
IOPIN 1584 560 BiDir
FLAG 1584 688 GND
IOPIN 1584 688 BiDir
FLAG 1568 752 GND
IOPIN 1568 752 BiDir
FLAG 1472 112 VDD
IOPIN 1472 112 BiDir
FLAG 1456 64 VDD
IOPIN 1456 64 BiDir
FLAG 1680 112 VDD
IOPIN 1680 112 BiDir
FLAG 1664 64 VDD
IOPIN 1664 64 BiDir
FLAG 1904 112 VDD
IOPIN 1904 112 BiDir
FLAG 1888 64 VDD
IOPIN 1888 64 BiDir
FLAG 1168 144 D0
FLAG 1392 144 D1
FLAG 1600 144 D2
FLAG 1824 144 D3
FLAG 1504 336 D0
FLAG 1504 464 D1
FLAG 1504 592 D2
FLAG 1504 720 D3
FLAG 2064 208 CLR
SYMBOL FFD 112 176 R0
SYMATTR InstName X1
SYMBOL FFD 368 176 R0
SYMATTR InstName X2
SYMBOL FFD 624 176 R0
SYMATTR InstName X3
SYMBOL FFD 880 176 R0
SYMATTR InstName X4
SYMBOL pmos4 1184 64 R0
SYMATTR InstName M1
SYMATTR Value2 l=600n w=3u
SYMATTR Value PFET
SYMBOL nmos4 1520 256 R0
SYMATTR InstName M2
SYMATTR Value2 l=600n w=12u
SYMATTR Value NFET
SYMBOL nmos4 1520 384 R0
SYMATTR InstName M3
SYMATTR Value2 l=600n w=12u
SYMATTR Value NFET
SYMBOL nmos4 1520 512 R0
SYMATTR InstName M4
SYMATTR Value2 l=600n w=12u
SYMATTR Value NFET
SYMBOL nmos4 1520 640 R0
SYMATTR InstName M5
SYMATTR Value2 l=600n w=12u
SYMATTR Value NFET
SYMBOL pmos4 1408 64 R0
SYMATTR InstName M6
SYMATTR Value2 l=600n w=3u
SYMATTR Value PFET
SYMBOL pmos4 1616 64 R0
SYMATTR InstName M7
SYMATTR Value2 l=600n w=3u
SYMATTR Value PFET
SYMBOL pmos4 1840 64 R0
SYMATTR InstName M8
SYMATTR Value2 l=600n w=3u
SYMATTR Value PFET
TEXT -120 600 Left 2 !.include "ami05.txt"
