Version 4
SHEET 1 880 680
WIRE 224 64 224 48
WIRE 128 80 112 80
WIRE -224 112 -224 96
WIRE -128 112 -128 96
WIRE -32 112 -32 96
WIRE 128 112 112 112
WIRE 288 112 272 112
WIRE 288 144 272 144
WIRE 128 176 112 176
WIRE -224 208 -224 192
WIRE -128 208 -128 192
WIRE -32 208 -32 192
WIRE 224 208 224 192
FLAG 224 48 VDD
FLAG 224 208 0
FLAG 288 112 _Q
FLAG 112 80 D
FLAG 112 112 CLK
FLAG -224 208 0
FLAG -128 208 0
FLAG -32 208 0
FLAG -128 96 D
FLAG -32 96 CLK
FLAG -224 96 VDD
FLAG 288 144 Q
FLAG 112 176 VDD
SYMBOL voltage -224 96 R0
WINDOW 123 0 0 Left 0
WINDOW 39 24 124 Left 2
SYMATTR SpiceLine Rser=1
SYMATTR InstName V1
SYMATTR Value 5
SYMBOL voltage -128 96 R0
WINDOW 3 24 96 Invisible 2
WINDOW 123 0 0 Left 0
WINDOW 39 0 0 Left 0
SYMATTR Value PULSE(0 5 3u 1n 1n 10u 20u)
SYMATTR InstName V2
SYMBOL voltage -32 96 R0
WINDOW 3 24 96 Invisible 2
WINDOW 123 0 0 Left 0
WINDOW 39 0 0 Left 0
SYMATTR Value PULSE(0 5 0 1n 1n 5u 10u)
SYMATTR InstName V3
SYMBOL FFD 208 144 R0
SYMATTR InstName X1
TEXT -256 232 Left 2 !.tran 100u
