Version 4
SHEET 1 880 680
WIRE 224 96 224 80
WIRE -224 112 -224 96
WIRE -128 112 -128 96
WIRE -32 112 -32 96
WIRE 176 128 160 128
WIRE 288 144 272 144
WIRE 176 160 160 160
WIRE -224 208 -224 192
WIRE -128 208 -128 192
WIRE -32 208 -32 192
WIRE 224 208 224 192
FLAG 224 80 VDD
FLAG 224 208 0
FLAG 288 144 OUT
FLAG 160 128 CLKA
FLAG 160 160 CLKB
FLAG -224 208 0
FLAG -128 208 0
FLAG -32 208 0
FLAG -128 96 CLKA
FLAG -32 96 CLKB
FLAG -224 96 VDD
SYMBOL voltage -224 96 R0
WINDOW 123 0 0 Left 0
WINDOW 39 0 0 Left 0
SYMATTR InstName V1
SYMATTR Value 5
SYMBOL voltage -128 96 R0
WINDOW 3 24 96 Invisible 2
WINDOW 123 0 0 Left 0
WINDOW 39 0 0 Left 0
SYMATTR Value PULSE(0 5 0 1n 1n 10u 20u)
SYMATTR InstName V2
SYMBOL voltage -32 96 R0
WINDOW 3 24 96 Invisible 2
WINDOW 123 0 0 Left 0
WINDOW 39 0 0 Left 0
SYMATTR Value PULSE(0 5 0 1n 1n 5u 10u)
SYMATTR InstName V3
SYMBOL NAND 224 144 R0
SYMATTR InstName X1
TEXT -258 232 Left 2 !.tran 20u
