Version 4
SHEET 1 880 680
WIRE 176 64 176 48
WIRE 80 80 64 80
WIRE 80 112 -32 112
WIRE 432 112 224 112
WIRE 384 144 224 144
WIRE 80 176 32 176
WIRE 176 208 176 192
WIRE 384 240 384 144
WIRE 384 240 336 240
WIRE 432 240 384 240
WIRE 32 256 32 176
WIRE 240 256 32 256
WIRE 384 272 336 272
WIRE 432 272 384 272
WIRE 176 320 176 304
WIRE 80 336 64 336
WIRE 80 368 -32 368
WIRE 384 400 384 272
WIRE 384 400 224 400
WIRE 32 432 32 256
WIRE 80 432 32 432
WIRE 176 464 176 448
FLAG 176 464 GND
IOPIN 176 464 BiDir
FLAG 176 208 GND
IOPIN 176 208 BiDir
FLAG 176 304 VDD
IOPIN 176 304 BiDir
FLAG 176 48 VDD
IOPIN 176 48 BiDir
FLAG 64 80 VDD
IOPIN 64 80 BiDir
FLAG 64 336 VDD
IOPIN 64 336 BiDir
FLAG -32 112 CLKA
IOPIN -32 112 In
FLAG -32 368 CLKB
IOPIN -32 368 In
FLAG 288 208 VDD
IOPIN 288 208 BiDir
FLAG 288 304 GND
IOPIN 288 304 BiDir
FLAG 432 112 _UP
IOPIN 432 112 Out
FLAG 432 272 DOWN
IOPIN 432 272 Out
FLAG 432 240 UP
SYMBOL FFD 160 144 R0
SYMATTR InstName X1
SYMBOL FFD 160 400 R0
SYMATTR InstName X2
SYMBOL NAND 288 256 M0
SYMATTR InstName X3
