Version 4
SHEET 1 880 680
WIRE 48 -32 48 -48
WIRE -48 -16 -128 -16
WIRE 592 0 592 -16
WIRE 224 48 128 48
WIRE 512 48 432 48
WIRE 752 48 672 48
WIRE -48 96 -96 96
WIRE 320 112 320 96
WIRE 592 112 592 96
WIRE 48 144 48 128
WIRE -352 192 -352 176
WIRE -256 192 -256 176
WIRE -352 288 -352 272
WIRE -256 288 -256 272
WIRE -256 288 -352 288
WIRE 336 352 336 336
WIRE -96 400 -96 96
WIRE -48 400 -96 400
WIRE 256 400 48 400
WIRE 752 400 752 48
WIRE 752 400 416 400
WIRE 336 464 336 448
WIRE -16 528 -16 496
WIRE 16 528 16 496
FLAG -256 288 0
FLAG -256 176 CLKA
FLAG -352 176 VDD
IOPIN -352 176 BiDir
FLAG -352 288 GND
IOPIN -352 288 BiDir
FLAG 48 -48 VDD
IOPIN 48 -48 BiDir
FLAG 48 144 GND
IOPIN 48 144 BiDir
FLAG 320 112 GND
IOPIN 320 112 BiDir
FLAG 592 112 GND
IOPIN 592 112 BiDir
FLAG 336 464 GND
IOPIN 336 464 BiDir
FLAG 592 -16 VDD
IOPIN 592 -16 BiDir
FLAG 336 336 VDD
IOPIN 336 336 BiDir
FLAG -128 -16 CLKA
FLAG -16 528 GND
IOPIN -16 528 BiDir
FLAG 16 528 VDD
IOPIN 16 528 BiDir
SYMBOL voltage -352 176 R0
WINDOW 123 0 0 Left 0
WINDOW 39 0 0 Left 0
SYMATTR InstName V1
SYMATTR Value 5
SYMBOL voltage -256 176 R0
WINDOW 3 24 96 Invisible 2
WINDOW 123 0 0 Left 0
WINDOW 39 0 0 Left 0
SYMATTR Value PULSE(0 5 0 10p 10p 33.333n 66.666n)
SYMATTR InstName V2
SYMBOL chargePump 16 64 R0
SYMATTR InstName X1
SYMBOL f_l 320 48 R0
SYMATTR InstName X2
SYMBOL vco 592 48 R0
SYMATTR InstName X3
SYMBOL divisor 336 400 M0
SYMATTR InstName X4
SYMBOL buffer -16 448 R90
SYMATTR InstName X6
TEXT -384 344 Left 2 !.tran 10u
