Version 4
SHEET 1 880 680
WIRE 176 96 176 64
WIRE -144 112 -144 96
WIRE 96 144 16 144
WIRE 288 144 256 144
WIRE 16 192 16 144
WIRE -144 208 -144 192
WIRE -144 208 -240 208
WIRE -144 224 -144 208
WIRE 176 224 176 192
WIRE -144 320 -144 304
WIRE 16 320 16 272
FLAG -144 320 GND
IOPIN -144 320 BiDir
FLAG -144 96 VDD
IOPIN -144 96 BiDir
FLAG -240 208 0
FLAG 16 320 GND
IOPIN 16 320 BiDir
FLAG 176 64 VDD
IOPIN 176 64 BiDir
FLAG 176 224 GND
IOPIN 176 224 BiDir
SYMBOL vco 176 144 R0
SYMATTR InstName X1
SYMBOL voltage -144 96 R0
WINDOW 123 0 0 Left 0
WINDOW 39 0 0 Left 0
SYMATTR InstName V1
SYMATTR Value 5
SYMBOL voltage -144 320 R180
WINDOW 0 24 96 Left 2
WINDOW 3 24 16 Left 2
WINDOW 123 0 0 Left 0
WINDOW 39 0 0 Left 0
SYMATTR InstName V2
SYMATTR Value 0
SYMBOL voltage 16 176 R0
WINDOW 3 24 96 Invisible 2
WINDOW 123 0 0 Left 0
WINDOW 39 0 0 Left 0
SYMATTR InstName V3
SYMATTR Value PULSE(0 5 0 10u 1o 1p)
TEXT -264 432 Left 2 !.tran 10u
