Version 4
SHEET 1 880 680
WIRE 64 -32 -64 -32
WIRE 224 -32 64 -32
WIRE 544 -32 416 -32
WIRE 704 -32 544 -32
WIRE 224 16 224 -32
WIRE 704 16 704 -32
WIRE 64 48 64 -32
WIRE 544 48 544 -32
WIRE -64 96 -64 -32
WIRE 416 96 416 -32
WIRE 224 128 224 96
WIRE 704 128 704 96
WIRE 64 176 64 128
WIRE 160 176 64 176
WIRE 544 176 544 128
WIRE 640 176 544 176
WIRE -64 256 -64 176
WIRE 224 256 224 224
WIRE 416 256 416 176
WIRE 704 256 704 224
FLAG 224 256 0
FLAG -64 256 0
FLAG 704 256 0
FLAG 416 256 0
SYMBOL res 208 0 R0
SYMATTR InstName R1
SYMATTR Value 2.7k
SYMBOL res 48 32 R0
SYMATTR InstName R2
SYMATTR Value 470k
SYMBOL voltage -64 80 R0
SYMATTR InstName V1
SYMATTR Value 16
SYMBOL res 688 0 R0
SYMATTR InstName R3
SYMATTR Value 2.7k
SYMBOL res 528 32 R0
SYMATTR InstName R4
SYMATTR Value 470k
SYMBOL voltage 416 80 R0
SYMATTR InstName V2
SYMATTR Value 16
SYMBOL npn 160 128 R0
SYMATTR InstName Q1
SYMBOL npn 640 128 R0
SYMATTR InstName Q2
SYMATTR Value NPN1
TEXT 416 312 Left 2 !.MODEL NPN1 NPN(BF=90)
TEXT -98 332 Left 2 !.op
