Version 4
SHEET 1 880 856
WIRE 192 -368 192 -384
WIRE 96 -336 80 -336
WIRE 96 -304 80 -304
WIRE -64 -288 -64 -304
WIRE 96 -272 80 -272
WIRE 96 -240 80 -240
WIRE 96 -208 80 -208
WIRE -64 -192 -64 -208
WIRE 96 -176 80 -176
WIRE 96 -144 80 -144
WIRE 96 -112 80 -112
WIRE 96 -80 80 -80
WIRE 304 -64 288 -64
WIRE 96 -48 80 -48
WIRE 304 -32 288 -32
WIRE 96 -16 80 -16
WIRE 304 0 288 0
WIRE 96 16 80 16
WIRE 304 32 288 32
WIRE 96 48 80 48
WIRE 304 64 288 64
WIRE 96 80 80 80
WIRE 304 96 288 96
WIRE 96 112 80 112
WIRE 304 128 288 128
WIRE 96 144 80 144
WIRE 304 160 288 160
WIRE 304 192 288 192
WIRE 96 208 80 208
WIRE 304 224 288 224
WIRE 96 240 80 240
WIRE 304 256 288 256
WIRE 96 272 80 272
WIRE 304 288 288 288
WIRE 96 304 80 304
WIRE 304 320 288 320
WIRE 96 336 80 336
WIRE 304 352 288 352
WIRE 96 368 80 368
WIRE 304 384 288 384
WIRE 96 400 80 400
WIRE 304 416 288 416
WIRE 96 432 80 432
WIRE 96 464 80 464
WIRE 304 480 288 480
WIRE 96 496 80 496
WIRE 96 528 80 528
WIRE 96 560 80 560
WIRE 96 592 80 592
WIRE 96 624 80 624
WIRE 96 656 80 656
WIRE 96 688 80 688
WIRE 96 752 80 752
WIRE 192 816 192 800
FLAG 192 816 0
FLAG -64 -192 0
FLAG -64 -304 VDD
FLAG 192 -384 VDD
FLAG 80 -336 VDD
FLAG 80 -304 VDD
FLAG 80 -272 VDD
FLAG 80 -240 VDD
FLAG 80 -208 VDD
FLAG 80 -176 VDD
FLAG 80 -144 VDD
FLAG 80 -112 VDD
FLAG 80 -80 VDD
FLAG 80 -48 VDD
FLAG 80 -16 VDD
FLAG 80 16 VDD
FLAG 80 48 VDD
FLAG 80 80 VDD
FLAG 80 112 VDD
FLAG 80 144 VDD
FLAG 80 208 VDD
FLAG 80 240 VDD
FLAG 80 272 VDD
FLAG 80 304 VDD
FLAG 80 336 VDD
FLAG 80 368 VDD
FLAG 80 400 VDD
FLAG 80 432 VDD
FLAG 80 464 VDD
FLAG 80 496 VDD
FLAG 80 528 VDD
FLAG 80 560 VDD
FLAG 80 592 VDD
FLAG 80 624 VDD
FLAG 80 656 VDD
FLAG 80 688 VDD
FLAG 80 752 0
SYMBOL knowles 800 160 R0
SYMATTR InstName X1
SYMBOL voltage -64 -304 R0
WINDOW 123 0 0 Left 0
WINDOW 39 0 0 Left 0
SYMATTR InstName V1
SYMATTR Value 5
TEXT -50 824 Left 2 !.tran 10u
